*KEYWORD
$> 
$> Primer18.0 created on: Mon Apr 17 09:35:50 2023
$> LS-DYNA version: R9.0
$> 
$> model title: column_blast_c1
$>
$read model in k file
$-
$-
$-
$> end_saved_comments
$
$
*TITLE
column_blast_c1
$
$
$
$ =============
$ CONTROL cards
$ =============
$
*CONTROL_MPP_IO_NODUMP
*CONTROL_MPP_IO_NOD3DUMP
*CONTROL_MPP_IO_NOFULL
*CONTROL_MPP_IO_LSTC_REDUCE
*CONTROL_OUTPUT
$:   npopt    neecho    nrefup    iaccop     opifs    ipnint    ikedit    iflush
         0         0         1         0       0.0         0         0         0
*CONTROL_TERMINATION
$:  endtim    endcyc     dtmin    endeng    endmas     nosol
       0.2         0       0.0       0.0       0.0         0
$
$
$ ==============
$ DATABASE cards
$ ==============
$
*DATABASE_GLSTAT
$:      dt    binary      lcur     ioopt
    5.0E-4         3         0         0
*DATABASE_NODOUT
$:      dt    binary      lcur     ioopt   option1   option2
     0.001         3         0         0       0.0         0
*DATABASE_BINARY_D3PLOT
$:      dt      lcdt    nobeam     npltc    psetid
     0.002         0         0         0         0
*DATABASE_BINARY_D3THDT
$:      dt      lcdt
    5.0E-4         0
*DATABASE_EXTENT_BINARY
$:   neiph     neips    maxint    strflg    sigflg    epsflg    rltflg    engflg
         0         0         0         0         0         0         0         0
$:  cmpflg    ieverp    beamip     dcomp      shge     stssz    n3thdt   ialemat
         0         0        36         0         0         0         0         0
$: nintsld   pkp_sen      sclp     hydro     msscl     therm    intout    nodout
         0         0       0.0         0         0         0                    
$:    dtdt    resplt     neipb                    
         0         0         0
$
*DATABASE_HISTORY_NODE_ID
$:      id       title
         3Mid_span_displacements                                                
$
$
$ ====================
$ MAT (Material) cards
$ ====================
$
*MAT_PIECEWISE_LINEAR_PLASTICITY_TITLE
Steel S355
$:     mid        ro         e        pr      sigy      etan      fail      tdel
         1    7850.0    2.0E11       0.3355000000.     1.0E9       0.0       0.0
$:       c         p      lcss      lcsr        vp
    1300.0       5.0         0         0       0.0
$:    eps1      eps2      eps3      eps4      eps5      eps6      eps7      eps8
       0.0       0.0       0.0       0.0       0.0       0.0       0.0       0.0
$:     es1       es2       es3       es4       es5       es6       es7       es8
       0.0       0.0       0.0       0.0       0.0       0.0       0.0       0.0
*MAT_ADD_EROSION
$:     mid      excl    mxpres     mneps    effeps    voleps    numfip       ncs
         1      99.0      99.0      99.0      0.15      99.0       0.0       0.0
$:  mnpres     sigp1     sigvm     mxeps     epssh     sigth   impulse    failtm
      99.0      99.0      99.0      99.0      99.0      99.0      99.0      99.0
$
*MAT_NULL_TITLE
Null_material
$:     mid        ro        pc        mu     terod     cerod        ym        pr
         2       1.0       0.0       0.0       0.0       0.0       0.0       0.0
$
*MAT_RIGID_TITLE
Rigid_shell
$:     mid        ro         e        pr         n    couple         m  alias/re
     10020    7890.0    2.1E11       0.3       0.0       0.0       0.0          
$:     cmo      con1      con2
       1.0       7.0       7.0
$:     lco        a2        a3        v1        v2        v3
         0       0.0       0.0       0.0       0.0       0.0
$
$
$
$ =============
$ SECTION cards
$ =============
$
*SECTION_BEAM_TITLE
column section
$:   label    elform      shrf      irid       cst     scoor       nsm          
         1         1       0.0        -1       0.0       0.0       0.0
$:     ts1       ts2       tt1       tt2     nsloc     ntloc
       0.0       0.0       0.0       0.0       0.0       0.0
$
*SECTION_SHELL_TITLE
null shell section
$:   label    elform      shrf       nip     propt        qr     icomp     setyp
         2         2       0.0         0       0.0       0.0         0         0
$:      t1        t2        t3        t4      nloc     marea      idof    edgset
     0.001     0.001     0.001     0.001       0.0       0.0       0.0         0
$
Rigid_shell_section
$:   label    elform      shrf       nip     propt        qr     icomp     setyp
     10020         2       0.0         0       0.0       0.0         0         0
$:      t1        t2        t3        t4      nloc     marea      idof    edgset
     0.001     0.001     0.001     0.001       0.0       0.0       0.0         0
$
$
$
$ =================
$ INTEGRATION cards
$ =================
$
*INTEGRATION_BEAM
$:   label       nip        ra      icst         k
         1         0       0.0         1         0
$:      d1        d2        d3        d4      sref      tref        d4        d5
    0.1732    0.0157    0.3634    0.0091       0.0       0.0       0.0       0.0
$
$
$ ==========
$ PART cards
$ ==========
$
*PART
$HMNAME COMPS       1column
column
$:     pid     secid       mid     eosid      hgid      grav    adpopt      tmid
         1         1         1         0         0         0         0         0
$
*PART
$HMNAME COMPS       2null shell blast face
null shell blast face
$:     pid     secid       mid     eosid      hgid      grav    adpopt      tmid
         2         2         2         0         0         0         0         0
$
*PART
$HMNAME COMPS   10020IED
IED
$:     pid     secid       mid     eosid      hgid      grav    adpopt      tmid
     10020     10020     10020         0         0         0         0         0
$
$
$
$ ==========
$ NODE cards
$ ==========
$
*NODE
$:   nid              cx              cy              cz      tc      rc
       1             0.0             0.0             0.0       0       0
       2             0.0             0.0       7.6999998       0       0
       3             0.0             0.0       3.8499999       0       0
       5             0.0             0.0      0.25666666       0       0
       6             0.0             0.0      0.51333332       0       0
       7             0.0             0.0      0.76999998       0       0
       8             0.0             0.0       1.0266666       0       0
       9             0.0             0.0       1.2833333       0       0
      10             0.0             0.0            1.54       0       0
      11             0.0             0.0       1.7966666       0       0
      12             0.0             0.0       2.0533333       0       0
      13             0.0             0.0       2.3099999       0       0
      14             0.0             0.0       2.5666666       0       0
      15             0.0             0.0       2.8233333       0       0
      16             0.0             0.0       3.0799999       0       0
      17             0.0             0.0       3.3366666       0       0
      18             0.0             0.0       3.5933332       0       0
      20             0.0             0.0       4.1066666       0       0
      21             0.0             0.0       4.3633332       0       0
      22             0.0             0.0       4.6199999       0       0
$ ... 197 like lines cut
$
$
$ =============
$ ELEMENT cards
$ =============
$
*ELEMENT_BEAM
$: label     pid      n1      n2      n3     rt1     rr1     rt2     rr2   local
       1       1       1       5      34
       2       1       5       6      35
       3       1       6       7      36
       4       1       7       8      37
       5       1       8       9      38
       6       1       9      10      39
       7       1      10      11      40
       8       1      11      12      41
       9       1      12      13      42
      10       1      13      14      43
      11       1      14      15      44
      12       1      15      16      45
      13       1      16      17      46
      14       1      17      18      47
      15       1      18       3      48
      16       1       3      20      49
      17       1      20      21      50
      18       1      21      22      51
      19       1      22      23      52
      20       1      23      24      53
$ ... 10 like lines cut
*ELEMENT_SHELL
$: label     pid      n1      n2      n3      n4      n5      n6      n7      n8
       1       2      18      65      69       3
       2       2      18       3      68      64
       5       2       3      69      77      20
       6       2       3      20      76      68
       9       2       5      81      85       6
      10       2       5       6      84      80
      13       2       6      85      93       7
      14       2       6       7      92      84
      17       2       7      93     101       8
      18       2       7       8     100      92
      21       2       8     101     109       9
      22       2       8       9     108     100
      25       2       9     109     117      10
      26       2       9      10     116     108
      29       2      10     117     125      11
      30       2      10      11     124     116
      33       2      11     125     133      12
      34       2      11      12     132     124
      37       2      12     133     141      13
      38       2      12      13     140     132
$ ... 132 like lines cut
$
$
$ ==============
$ BOUNDARY cards
$ ==============
$
*BOUNDARY_SPC_NODE
$:      id       cid      dofx      dofy      dofz     dofrx     dofry     dofrz
         1         0         1         1         1         0         0         1
         2         0         1         1         0         0         0         1
$
$
$ =================
$ CONSTRAINED cards
$ =================
$
*CONSTRAINED_NODAL_RIGID_BODY
$:   label       cid      nsid     pnode      iprt    drflag    rrflag
         1         0         1         0         0         0         0
$
$: Cross-reference summary for SET_NODE 1
$:---------------------------------------
$: NODAL_RIGID_BODY 1
$
*SET_NODE_LIST
$:     sid       da1       da2       da3       da4
         1       0.0       0.0       0.0       0.0
$:     id1       id2       id3       id4       id5       id6       id7       id8
         3        68        69
$
*CONSTRAINED_NODAL_RIGID_BODY
$:   label       cid      nsid     pnode      iprt    drflag    rrflag
         2         0         2         0         0         0         0
$
$: Cross-reference summary for SET_NODE 2
$:---------------------------------------
$: NODAL_RIGID_BODY 2
$
*SET_NODE_LIST
$:     sid       da1       da2       da3       da4
         2       0.0       0.0       0.0       0.0
$:     id1       id2       id3       id4       id5       id6       id7       id8
         5        80        81
$
*CONSTRAINED_NODAL_RIGID_BODY
$:   label       cid      nsid     pnode      iprt    drflag    rrflag
         3         0         3         0         0         0         0
$
$: Cross-reference summary for SET_NODE 3
$:---------------------------------------
$: NODAL_RIGID_BODY 3
$
*SET_NODE_LIST
$:     sid       da1       da2       da3       da4
         3       0.0       0.0       0.0       0.0
$:     id1       id2       id3       id4       id5       id6       id7       id8
         6        84        85
$
*CONSTRAINED_NODAL_RIGID_BODY
$:   label       cid      nsid     pnode      iprt    drflag    rrflag
         4         0         4         0         0         0         0
$
$: Cross-reference summary for SET_NODE 4
$:---------------------------------------
$: NODAL_RIGID_BODY 4
$
*SET_NODE_LIST
$:     sid       da1       da2       da3       da4
         4       0.0       0.0       0.0       0.0
$:     id1       id2       id3       id4       id5       id6       id7       id8
         7        92        93
$
*CONSTRAINED_NODAL_RIGID_BODY
$:   label       cid      nsid     pnode      iprt    drflag    rrflag
         5         0         5         0         0         0         0
$
$: Cross-reference summary for SET_NODE 5
$:---------------------------------------
$: NODAL_RIGID_BODY 5
$
*SET_NODE_LIST
$:     sid       da1       da2       da3       da4
         5       0.0       0.0       0.0       0.0
$:     id1       id2       id3       id4       id5       id6       id7       id8
         8       100       101
$
*CONSTRAINED_NODAL_RIGID_BODY
$:   label       cid      nsid     pnode      iprt    drflag    rrflag
         6         0         6         0         0         0         0
$
$: Cross-reference summary for SET_NODE 6
$:---------------------------------------
$: NODAL_RIGID_BODY 6
$
*SET_NODE_LIST
$:     sid       da1       da2       da3       da4
         6       0.0       0.0       0.0       0.0
$:     id1       id2       id3       id4       id5       id6       id7       id8
         9       108       109
$
*CONSTRAINED_NODAL_RIGID_BODY
$:   label       cid      nsid     pnode      iprt    drflag    rrflag
         7         0         7         0         0         0         0
$
$: Cross-reference summary for SET_NODE 7
$:---------------------------------------
$: NODAL_RIGID_BODY 7
$
*SET_NODE_LIST
$:     sid       da1       da2       da3       da4
         7       0.0       0.0       0.0       0.0
$:     id1       id2       id3       id4       id5       id6       id7       id8
        10       116       117
$
*CONSTRAINED_NODAL_RIGID_BODY
$:   label       cid      nsid     pnode      iprt    drflag    rrflag
         8         0         8         0         0         0         0
$
$: Cross-reference summary for SET_NODE 8
$:---------------------------------------
$: NODAL_RIGID_BODY 8
$
*SET_NODE_LIST
$:     sid       da1       da2       da3       da4
         8       0.0       0.0       0.0       0.0
$:     id1       id2       id3       id4       id5       id6       id7       id8
        11       124       125
$
*CONSTRAINED_NODAL_RIGID_BODY
$:   label       cid      nsid     pnode      iprt    drflag    rrflag
         9         0         9         0         0         0         0
$
$: Cross-reference summary for SET_NODE 9
$:---------------------------------------
$: NODAL_RIGID_BODY 9
$
*SET_NODE_LIST
$:     sid       da1       da2       da3       da4
         9       0.0       0.0       0.0       0.0
$:     id1       id2       id3       id4       id5       id6       id7       id8
        12       132       133
$
*CONSTRAINED_NODAL_RIGID_BODY
$:   label       cid      nsid     pnode      iprt    drflag    rrflag
        10         0        10         0         0         0         0
$
$: Cross-reference summary for SET_NODE 10
$:----------------------------------------
$: NODAL_RIGID_BODY 10
$
*SET_NODE_LIST
$:     sid       da1       da2       da3       da4
        10       0.0       0.0       0.0       0.0
$:     id1       id2       id3       id4       id5       id6       id7       id8
        13       140       141
$
*CONSTRAINED_NODAL_RIGID_BODY
$:   label       cid      nsid     pnode      iprt    drflag    rrflag
        11         0        11         0         0         0         0
$
$: Cross-reference summary for SET_NODE 11
$:----------------------------------------
$: NODAL_RIGID_BODY 11
$
*SET_NODE_LIST
$:     sid       da1       da2       da3       da4
        11       0.0       0.0       0.0       0.0
$:     id1       id2       id3       id4       id5       id6       id7       id8
        14       148       149
$
*CONSTRAINED_NODAL_RIGID_BODY
$:   label       cid      nsid     pnode      iprt    drflag    rrflag
        12         0        12         0         0         0         0
$
$: Cross-reference summary for SET_NODE 12
$:----------------------------------------
$: NODAL_RIGID_BODY 12
$
*SET_NODE_LIST
$:     sid       da1       da2       da3       da4
        12       0.0       0.0       0.0       0.0
$:     id1       id2       id3       id4       id5       id6       id7       id8
        15       156       157
$
*CONSTRAINED_NODAL_RIGID_BODY
$:   label       cid      nsid     pnode      iprt    drflag    rrflag
        13         0        13         0         0         0         0
$
$: Cross-reference summary for SET_NODE 13
$:----------------------------------------
$: NODAL_RIGID_BODY 13
$
*SET_NODE_LIST
$:     sid       da1       da2       da3       da4
        13       0.0       0.0       0.0       0.0
$:     id1       id2       id3       id4       id5       id6       id7       id8
        16       164       165
$
*CONSTRAINED_NODAL_RIGID_BODY
$:   label       cid      nsid     pnode      iprt    drflag    rrflag
        14         0        14         0         0         0         0
$
$: Cross-reference summary for SET_NODE 14
$:----------------------------------------
$: NODAL_RIGID_BODY 14
$
*SET_NODE_LIST
$:     sid       da1       da2       da3       da4
        14       0.0       0.0       0.0       0.0
$:     id1       id2       id3       id4       id5       id6       id7       id8
        17       172       173
$
*CONSTRAINED_NODAL_RIGID_BODY
$:   label       cid      nsid     pnode      iprt    drflag    rrflag
        15         0        15         0         0         0         0
$
$: Cross-reference summary for SET_NODE 15
$:----------------------------------------
$: NODAL_RIGID_BODY 15
$
*SET_NODE_LIST
$:     sid       da1       da2       da3       da4
        15       0.0       0.0       0.0       0.0
$:     id1       id2       id3       id4       id5       id6       id7       id8
        18        64        65
$
*CONSTRAINED_NODAL_RIGID_BODY
$:   label       cid      nsid     pnode      iprt    drflag    rrflag
        16         0        16         0         0         0         0
$
$: Cross-reference summary for SET_NODE 16
$:----------------------------------------
$: NODAL_RIGID_BODY 16
$
*SET_NODE_LIST
$:     sid       da1       da2       da3       da4
        16       0.0       0.0       0.0       0.0
$:     id1       id2       id3       id4       id5       id6       id7       id8
        20        76        77
$
*CONSTRAINED_NODAL_RIGID_BODY
$:   label       cid      nsid     pnode      iprt    drflag    rrflag
        17         0        17         0         0         0         0
$
$: Cross-reference summary for SET_NODE 17
$:----------------------------------------
$: NODAL_RIGID_BODY 17
$
*SET_NODE_LIST
$:     sid       da1       da2       da3       da4
        17       0.0       0.0       0.0       0.0
$:     id1       id2       id3       id4       id5       id6       id7       id8
        21       188       189
$
*CONSTRAINED_NODAL_RIGID_BODY
$:   label       cid      nsid     pnode      iprt    drflag    rrflag
        18         0        18         0         0         0         0
$
$: Cross-reference summary for SET_NODE 18
$:----------------------------------------
$: NODAL_RIGID_BODY 18
$
*SET_NODE_LIST
$:     sid       da1       da2       da3       da4
        18       0.0       0.0       0.0       0.0
$:     id1       id2       id3       id4       id5       id6       id7       id8
        22       196       197
$
*CONSTRAINED_NODAL_RIGID_BODY
$:   label       cid      nsid     pnode      iprt    drflag    rrflag
        19         0        19         0         0         0         0
$
$: Cross-reference summary for SET_NODE 19
$:----------------------------------------
$: NODAL_RIGID_BODY 19
$
*SET_NODE_LIST
$:     sid       da1       da2       da3       da4
        19       0.0       0.0       0.0       0.0
$:     id1       id2       id3       id4       id5       id6       id7       id8
        23       204       205
$
*CONSTRAINED_NODAL_RIGID_BODY
$:   label       cid      nsid     pnode      iprt    drflag    rrflag
        20         0        20         0         0         0         0
$
$: Cross-reference summary for SET_NODE 20
$:----------------------------------------
$: NODAL_RIGID_BODY 20
$
*SET_NODE_LIST
$:     sid       da1       da2       da3       da4
        20       0.0       0.0       0.0       0.0
$:     id1       id2       id3       id4       id5       id6       id7       id8
        24       212       213
$
*CONSTRAINED_NODAL_RIGID_BODY
$:   label       cid      nsid     pnode      iprt    drflag    rrflag
        21         0        21         0         0         0         0
$
$: Cross-reference summary for SET_NODE 21
$:----------------------------------------
$: NODAL_RIGID_BODY 21
$
*SET_NODE_LIST
$:     sid       da1       da2       da3       da4
        21       0.0       0.0       0.0       0.0
$:     id1       id2       id3       id4       id5       id6       id7       id8
        25       220       221
$
*CONSTRAINED_NODAL_RIGID_BODY
$:   label       cid      nsid     pnode      iprt    drflag    rrflag
        22         0        22         0         0         0         0
$
$: Cross-reference summary for SET_NODE 22
$:----------------------------------------
$: NODAL_RIGID_BODY 22
$
*SET_NODE_LIST
$:     sid       da1       da2       da3       da4
        22       0.0       0.0       0.0       0.0
$:     id1       id2       id3       id4       id5       id6       id7       id8
        26       228       229
$
*CONSTRAINED_NODAL_RIGID_BODY
$:   label       cid      nsid     pnode      iprt    drflag    rrflag
        23         0        23         0         0         0         0
$
$: Cross-reference summary for SET_NODE 23
$:----------------------------------------
$: NODAL_RIGID_BODY 23
$
*SET_NODE_LIST
$:     sid       da1       da2       da3       da4
        23       0.0       0.0       0.0       0.0
$:     id1       id2       id3       id4       id5       id6       id7       id8
        27       236       237
$
*CONSTRAINED_NODAL_RIGID_BODY
$:   label       cid      nsid     pnode      iprt    drflag    rrflag
        24         0        24         0         0         0         0
$
$: Cross-reference summary for SET_NODE 24
$:----------------------------------------
$: NODAL_RIGID_BODY 24
$
*SET_NODE_LIST
$:     sid       da1       da2       da3       da4
        24       0.0       0.0       0.0       0.0
$:     id1       id2       id3       id4       id5       id6       id7       id8
        28       244       245
$
*CONSTRAINED_NODAL_RIGID_BODY
$:   label       cid      nsid     pnode      iprt    drflag    rrflag
        25         0        25         0         0         0         0
$
$: Cross-reference summary for SET_NODE 25
$:----------------------------------------
$: NODAL_RIGID_BODY 25
$
*SET_NODE_LIST
$:     sid       da1       da2       da3       da4
        25       0.0       0.0       0.0       0.0
$:     id1       id2       id3       id4       id5       id6       id7       id8
        29       252       253
$
*CONSTRAINED_NODAL_RIGID_BODY
$:   label       cid      nsid     pnode      iprt    drflag    rrflag
        26         0        26         0         0         0         0
$
$: Cross-reference summary for SET_NODE 26
$:----------------------------------------
$: NODAL_RIGID_BODY 26
$
*SET_NODE_LIST
$:     sid       da1       da2       da3       da4
        26       0.0       0.0       0.0       0.0
$:     id1       id2       id3       id4       id5       id6       id7       id8
        30       260       261
$
*CONSTRAINED_NODAL_RIGID_BODY
$:   label       cid      nsid     pnode      iprt    drflag    rrflag
        27         0        27         0         0         0         0
$
$: Cross-reference summary for SET_NODE 27
$:----------------------------------------
$: NODAL_RIGID_BODY 27
$
*SET_NODE_LIST
$:     sid       da1       da2       da3       da4
        27       0.0       0.0       0.0       0.0
$:     id1       id2       id3       id4       id5       id6       id7       id8
        31       268       269
$
*CONSTRAINED_NODAL_RIGID_BODY
$:   label       cid      nsid     pnode      iprt    drflag    rrflag
        28         0        28         0         0         0         0
$
$: Cross-reference summary for SET_NODE 28
$:----------------------------------------
$: NODAL_RIGID_BODY 28
$
*SET_NODE_LIST
$:     sid       da1       da2       da3       da4
        28       0.0       0.0       0.0       0.0
$:     id1       id2       id3       id4       id5       id6       id7       id8
        32       276       277
$
*CONSTRAINED_NODAL_RIGID_BODY
$:   label       cid      nsid     pnode      iprt    drflag    rrflag
        29         0        29         0         0         0         0
$
$: Cross-reference summary for SET_NODE 29
$:----------------------------------------
$: NODAL_RIGID_BODY 29
$
*SET_NODE_LIST
$:     sid       da1       da2       da3       da4
        29       0.0       0.0       0.0       0.0
$:     id1       id2       id3       id4       id5       id6       id7       id8
        33       284       285
$
$
$
$ ==========
$ LOAD cards
$ ==========
$
*LOAD_BLAST_ENHANCED
$:   label         m       xbo       ybo       zbo       tbo      unit     blast
         1     500.0       0.0       8.0       0.6       0.0         2         2
$:     cfm       cfl       cft       cfp     nidbo     death    negphs
       0.0       0.0       0.0       0.0         0       0.0         0
*LOAD_BLAST_SEGMENT_SET
$:     bid      ssid    alepid     sfnrb    scalep
         1         1         0       0.0       0.0
$
$: Cross-reference summary for SET_SEGMENT 1
$:------------------------------------------
$: LOAD_BLAST_SEGMENT_SET <No label>
$
*SET_SEGMENT_TITLE
Blast_segments
$:     sid       da1       da2       da3       da4
         1       0.0       0.0       0.0       0.0
$:      n1        n2        n3        n4        a1        a2        a3        a4
        18        65        69         3
        18         3        68        64
         3        69        77        20
         3        20        76        68
         5        81        85         6
         5         6        84        80
         6        85        93         7
         6         7        92        84
         7        93       101         8
         7         8       100        92
         8       101       109         9
         8         9       108       100
         9       109       117        10
         9        10       116       108
        10       117       125        11
        10        11       124       116
        11       125       133        12
        11        12       132       124
        12       133       141        13
        12        13       140       132
$ ... 36 like lines cut
$
$
$
$ =========
$ SET cards
$ =========
$
$
*END
